* BD175 — NPN, TO-126, ~30 W, 3 A, fT ≈ 3 MHz
.model BD175 NPN (
+ IS=1e-12     NF=1.00
+ BF=120       IKF=0.5
+ VAF=50
+ ISE=3e-13    NE=2.0
+ BR=5         NR=1.0
+ VAR=30       IKR=0.5
+ RB=5         RC=0.1      RE=0.05
+ CJE=200p     VJE=0.75    MJE=0.4
+ CJC=100p     VJC=0.75    MJC=0.4
+ TF=53n       TR=300n
+ XTB=1.5      EG=1.11
)
.model 2N3904 NPN(IS=1E-14 VAF=100 Bf=300 IKF=0.4 XTB=1.5 BR=4 CJC=4E-12 CJE=8E-12 RB=20 RC=0.1 RE=0.1 TR=250E-9 TF=350E-12 ITF=1 VTF=2 XTF=3 Vceo=40 Icrating=200m mfg=Philips)
