* BD176 — PNP, komplementær til BD175
.model BD176 PNP (
+ IS=1.2e-12   NF=1.00
+ BF=100       IKF=0.4
+ VAF=50
+ ISE=3.6e-13  NE=2.0
+ BR=5         NR=1.0
+ VAR=30       IKR=0.4
+ RB=5         RC=0.1      RE=0.05
+ CJE=220p     VJE=0.75    MJE=0.4
+ CJC=110p     VJC=0.75    MJC=0.4
+ TF=53n       TR=350n
+ XTB=1.5      EG=1.11
)
.model 2N3906 PNP(IS=1E-14 VAF=100 BF=200 IKF=0.4 XTB=1.5 BR=4 CJC=4.5E-12 CJE=10E-12 RB=20 RC=0.1 RE=0.1 TR=250E-9 TF=350E-12 ITF=1 VTF=2 XTF=3 Vceo=40 Icrating=200m mfg=Philips)
.model BC857A PNP(IS=1.17E-14 NF=0.9972 ISE=1.762E-14 NE=1.661 BF=161.3 IKF=0.15 VAF=59.62 NR=0.9967 ISC=1.506E-13 NC=1.32 BR=6.78 IKR=0.048 VAR=15.4 RB=10 IRB=5.00E-06 RBM=5 RE=0.689 RC=0.61 CJE=1.325E-11 VJE=0.8514 MJE=0.3999 TF=8.333E-10 XTF=2.41 VTF=6.262 ITF=0.097 PTF=0 CJC=6.396E-12 VJC=0.2182 MJC=0.333 XCJC=0.6288 TR=0.00000007 CJS=0 VJS=0.75 MJS=0.333 XTB=0 XTI=3 EG=1.11 FC=0.8981 Vceo=45 Icrating=100m mfg=Philips)
.model BC857B PNP(IS=2.014E-14 NF=0.9974 ISE=6.578E-15 NE=1.45 BF=315.3 IKF=0.079 VAF=39.15 NR=0.9952 ISC=1.633E-14 NC=1.15 BR=8.68 IKR=0.09 VAR=9.5 RB=10 IRB=5.00E-06 RBM=5.00E-06 RE=0.663 RC=0.718 CJE=1.135E-11 VJE=0.7071 MJE=0.3808 TF=6.546E-10 XTF=5.387 VTF=6.245 ITF=0.2108 PTF=0 CJC=6.395E-12 VJC=0.4951 MJC=0.44 XCJC=0.6288 TR=5.50E-08 CJS=0 VJS=0.75 MJS=0.333 XTB=0 XTI=3 EG=1.11 FC=0.9059 Vceo=45 Icrating=100m mfg=Philips)
.model BC857C PNP(IS=3.258E-14 NF=0.999 ISE=3.003E-15 NE=1.45 BF=515.4 IKF=0.066 VAF=25 NR=0.9985 ISC=4.393E-15 NC=1.2 BR=15.26 IKR=0.039 VAR=8 RB=10 IRB=5.00E-06 RBM=5 RE=0.7071 RC=0.58 CJE=1.024E-11 VJE=0.9 MJE=0.453 TF=5.971E-10 XTF=4.137 VTF=6.31 ITF=0.2108 PTF=0 CJC=6.345E-12 VJC=0.4254 MJC=0.423 XCJC=0.6288 TR=0.000000035 CJS=0 VJS=0.75 MJS=0.333 XTB=0 XTI=3 EG=1.11 FC=0.78 Vceo=45 Icrating=100m mfg=Philips)
