* BD175 — NPN, TO-126, ~30 W, 3 A, fT ≈ 3 MHz
.model BD175 NPN (
+ IS=1e-12     NF=1.00
+ BF=120       IKF=0.5
+ VAF=50
+ ISE=3e-13    NE=2.0
+ BR=5         NR=1.0
+ VAR=30       IKR=0.5
+ RB=5         RC=0.1      RE=0.05
+ CJE=200p     VJE=0.75    MJE=0.4
+ CJC=100p     VJC=0.75    MJC=0.4
+ TF=53n       TR=300n
+ XTB=1.5      EG=1.11
)
.model 2N3904 NPN(IS=1E-14 VAF=100 Bf=300 IKF=0.4 XTB=1.5 BR=4 CJC=4E-12 CJE=8E-12 RB=20 RC=0.1 RE=0.1 TR=250E-9 TF=350E-12 ITF=1 VTF=2 XTF=3 Vceo=40 Icrating=200m mfg=Philips)
.model BC847A NPN(IS=9.677E-15 NF=0.9922 ISE=5.44E-15 NE=2 BF=182.1 IKF=0.14 VAF=143.8 NR=0.9935 ISC=5.236E-12 NC=1.53 BR=7.004 IKR=0.06 VAR=31.15 RB=10 IRB=5.00E-06 RBM=4 RE=0.78 RC=0.656 XTB=0 EG=1.11 XTI=3 CJE=1.443E-11 VJE=0.733 MJE=0.3514 TF=6.04E-10 XTF=8.94 VTF=3.78 ITF=0.2711 PTF=0 CJC=3.287E-12 VJC=0.5444 MJC=0.3954 XCJC=0.6193 TR=0.00000011 CJS=0 VJS=0.75 MJS=0.333 FC=0.789 Vceo=45 Icrating=100m mfg=Philips)
.model BC847B NPN(IS=1.822E-14 NF=0.9932 ISE=2.894E-16 NE=1.4 BF=324.4 IKF=0.109 VAF=82 NR=0.9931 ISC=9.982E-12 NC=1.763 BR=8.29 IKR=0.09 VAR=17.9 RB=10 IRB=5.00E-06 RBM=5 RE=0.649 RC=0.7014 XTB=0 EG=1.11 XTI=3 CJE=1.244E-11 VJE=0.7579 MJE=0.3656 TF=4.908E-10 XTF=9.51 VTF=2.927 ITF=0.3131 PTF=0 CJC=3.347E-12 VJC=0.5463 MJC=0.391 XCJC=0.6193 TR=9.00E-08 CJS=0 VJS=0.75 MJS=0.333 FC=0.979 Vceo=45 Icrating=100m mfg=Philips)
.model BC847C NPN(IS=2.375E-14 NF=0.9925 ISE=5.16E-16 NE=1.3 BF=524.9 IKF=0.09 VAF=49.77 NR=0.9931 ISC=7.064E-12 NC=1.78 BR=10.04 IKR=0.132 VAR=16 RB=10 IRB=5.00E-06 RBM=5 RE=0.653 RC=0.78 XTB=0 EG=1.11 XTI=3 CJE=1.132E-11 VJE=0.7685 MJE=0.3733 TF=4.258E-10 XTF=6.319 VTF=6.4 ITF=0.1845 PTF=0 CJC=3.379E-12 VJC=0.5444 MJC=0.3968 XCJC=0.6193 TR=0.000000095 CJS=0 VJS=0.75 MJS=0.333 FC=0.999 Vceo=45 Icrating=100m mfg=Philips)
