* BD176 — PNP, komplementær til BD175
.model BD176 PNP (
+ IS=1.2e-12   NF=1.00
+ BF=100       IKF=0.4
+ VAF=50
+ ISE=3.6e-13  NE=2.0
+ BR=5         NR=1.0
+ VAR=30       IKR=0.4
+ RB=5         RC=0.1      RE=0.05
+ CJE=220p     VJE=0.75    MJE=0.4
+ CJC=110p     VJC=0.75    MJC=0.4
+ TF=53n       TR=350n
+ XTB=1.5      EG=1.11
)
.model 2N3906 PNP(IS=1E-14 VAF=100 BF=200 IKF=0.4 XTB=1.5 BR=4 CJC=4.5E-12 CJE=10E-12 RB=20 RC=0.1 RE=0.1 TR=250E-9 TF=350E-12 ITF=1 VTF=2 XTF=3 Vceo=40 Icrating=200m mfg=Philips)
